
**** 06/02/21 18:08:34 ****** PSpice 17.2.0 (March 2016) ****** ID# 0 ********

 ** Profile: "SCHEMATIC1-time_freq_9100"  [ d:\cad\signal_generator-pspicefiles\schematic1\time_freq_9100.sim ] 


 ****     CIRCUIT DESCRIPTION


******************************************************************************




** Creating circuit file "time_freq_9100.cir" 
** WARNING: THIS AUTOMATICALLY GENERATED FILE MAY BE OVERWRITTEN BY SUBSEQUENT SIMULATIONS

*Libraries: 
* Profile Libraries :
* Local Libraries :
* From [PSPICE NETLIST] section of D:\Cadence\Cadence\cdssetup\OrCAD_PSpice\17.2.0\PSpice.ini file:
.lib "nom.lib" 

*Analysis directives: 
.TRAN  0 2ms 0 
.STEP LIN TEMP -20 40 10 
.OPTIONS ADVCONV
.PROBE64 V(alias(*)) I(alias(*)) W(alias(*)) D(alias(*)) NOISE(alias(*)) 
.INC "..\SCHEMATIC1.net" 



**** INCLUDING SCHEMATIC1.net ****
* source SIGNAL_GENERATOR
.EXTERNAL OUTPUT +VCC
.EXTERNAL OUTPUT -VCC
R_R8         N40270 TRIUNGHI R_R8 4k TC=0,0 
.model        R_R8 RES R=1 DEV=0.1% TC1=0 TC2=0
C_C4         N38297 TRIUNGHI C_C4 {c} IC=0 TC=0,0 
.model        C_C4 CAP C=1 DEV=10% TC1=0 TC2=0 VC1=0 VC2=0
R_R3         0 N55615 R_R3 4k TC=0,0 
.model        R_R3 RES R=1 DEV=0.1% TC1=0 TC2=0
R_R2         DREPT N55611 R_R2 7.68k TC=0,0 
.model        R_R2 RES R=1 DEV=0.1% TC1=0 TC2=0
R_R14         N38457 N38297 R_R14 10.2k TC=0,0 
.model        R_R14 RES R=1 DEV=0.1% TC1=0 TC2=0
X_R17         N38771 N38457 DREPT POT PARAMS: SET={k} VALUE=50k
X_U9         N38467 N38297 +VCC -VCC TRIUNGHI LTC1151/LT
V_V1         +VCC 0 15V
X_R4         N55611 N55619 N55615 POT PARAMS: SET={set} VALUE=3k
R_R18         0 N38771 R_R18 24k TC=0,0 
.model        R_R18 RES R=1 DEV=1% TC1=0 TC2=0
X_U6         N40270 N38507 +VCC -VCC DREPT LTC1151/LT
R_LOAD         0 OUT R_LOAD 10  TC=0,0 
.model        R_LOAD RES R=1 DEV=0.1% TC1=0 TC2=0
V_V2         -VCC 0 -15V
R_R7         DREPT N40270 R_R7 15k TC=0,0 
.model        R_R7 RES R=1 DEV=5% TC1=0 TC2=0
R_R15         0 N38507 R_R15 3k TC=0,0 
.model        R_R15 RES R=1 DEV=10% TC1=0 TC2=0
R_R16         0 N38467 R_R16 10.2k TC=0,0 
.model        R_R16 RES R=1 DEV=0.1% TC1=0 TC2=0
D_D6         N54424 N54538 D1N4448_1 
Q_Q22         N54538 N54534 OUT Q2SA1241 
R_Rp2         +VCC N54306 R_Rp2 500 TC=0,0 
.model        R_Rp2 RES R=1 DEV=5% TC1=0 TC2=0
Q_Q20         N54306 N54330 OUT Q2SC3076 
R_Rp3         N54538 -VCC R_Rp3 500 TC=0,0 
.model        R_Rp3 RES R=1 DEV=5% TC1=0 TC2=0
Q_Q19         -VCC N54538 N54534 Q2SA1241 
D_D5         N54306 N54424 D1N4448_1 
Q_Q21         +VCC N54306 N54330 Q2SC3076 
R_Rp         OUT N54534 R_Rp 1 TC=0,0 
.model        R_Rp RES R=1 DEV=1% TC1=0 TC2=0
R_Rp1         N54330 OUT R_Rp1 1 TC=0,0 
.model        R_Rp1 RES R=1 DEV=1% TC1=0 TC2=0
X_U17         TRIUNGHI N54218 Sw_tOpen PARAMS: tOpen=0 ttran=1u Rclosed=0.01
+  Ropen=1Meg
X_U18         N55619 N54218 Sw_tOpen PARAMS: tOpen=1 ttran=1u Rclosed=0.01
+  Ropen=1Meg
X_U19         N54218 OUT +VCC -VCC N54424 uA741
.PARAM  open_d=1 open_t=0 k=0.5 c=10n set=0

**** RESUMING time_freq_9100.cir ****
.END

**** 06/02/21 18:08:34 ****** PSpice 17.2.0 (March 2016) ****** ID# 0 ********

 ** Profile: "SCHEMATIC1-time_freq_9100"  [ d:\cad\signal_generator-pspicefiles\schematic1\time_freq_9100.sim ] 


 ****     Diode MODEL PARAMETERS


******************************************************************************




               D1N4448_1       X_U19.dx        X_U19.dy        
          IS    2.681000E-09  800.000000E-18  800.000000E-18 
           N    1.835                                        
         ISR    1.566000E-09                                 
         IKF     .03482                                      
          BV  100                                            
         IBV  100.000000E-06                                 
          RS     .5142          1               1.000000E-03 
          TT   11.540000E-09                                 
         CJO    4.000000E-12                   10.000000E-12 
          VJ     .5                                          
           M     .3333                                       


               X_U9.X_LTC1151.DM1 
          IS   10.000000E-21 


               X_U9.X_LTC1151.DM2 
          IS  800.000000E-18 
          BV   39.6          


               X_U9.X_LTC1151.DM3 
          IS  100.000000E-18 


               X_U9.X_LTC1151.DMG1 
          IS    7.000000E-12 
           N    2.31         


               X_U9.X_LTC1151.DMG2 
          IS    6.300000E-12 
           N    2.31         


               X_U6.X_LTC1151.DM1 
          IS   10.000000E-21 


               X_U6.X_LTC1151.DM2 
          IS  800.000000E-18 
          BV   39.6          


               X_U6.X_LTC1151.DM3 
          IS  100.000000E-18 


               X_U6.X_LTC1151.DMG1 
          IS    7.000000E-12 
           N    2.31         


               X_U6.X_LTC1151.DMG2 
          IS    6.300000E-12 
           N    2.31         


**** 06/02/21 18:08:34 ****** PSpice 17.2.0 (March 2016) ****** ID# 0 ********

 ** Profile: "SCHEMATIC1-time_freq_9100"  [ d:\cad\signal_generator-pspicefiles\schematic1\time_freq_9100.sim ] 


 ****     BJT MODEL PARAMETERS


******************************************************************************




               Q2SA1241        Q2SC3076        X_U19.qx        
               PNP             NPN             NPN             
       LEVEL    1               1               1            
          IS   32.394000E-15    6.089700E-15  800.000000E-18 
          BF  174.89          155.61           93.75         
          NF    1               1               1            
         VAF  100             100                            
         IKF    1.9728          4.1218                       
         ISE  303.290000E-15   51.313000E-15                 
          NE    1.4972          1.5655                       
          BR   15.037          13.89            1            
          NR    1               1               1            
         VAR  100             100                            
         IKR   14.83             .66343                      
         ISC  792.440000E-15   78.587000E-15                 
          NC    1.3232          1.288                        
          NK     .51107          .42345                      
         ISS    0               0               0            
          RB    1.5                                          
          RE    0               0               0            
          RC     .20069          .08025         0            
         CJE   64.281000E-12    2.000000E-12    0            
         VJE     .75             .75             .75         
         MJE     .33333                                      
         CJC   97.165000E-12   72.874000E-12    0            
         VJC     .75             .75             .75         
         MJC     .33333          .33333          .33         
        XCJC    1               1               1            
         CJS    0               0               0            
         VJS     .75             .75             .75         
          TF  360.000000E-12  815.540000E-12                 
         XTF   10              10                            
         VTF   10              10                            
         ITF    1               1                            
          TR  165.670000E-09  159.250000E-09                 
         XTB                    1.5                          
          KF    0               0               0            
          AF    1               1               1            
          CN    2.2             2.42            2.42         
           D     .52             .87             .87         


**** 06/02/21 18:08:34 ****** PSpice 17.2.0 (March 2016) ****** ID# 0 ********

 ** Profile: "SCHEMATIC1-time_freq_9100"  [ d:\cad\signal_generator-pspicefiles\schematic1\time_freq_9100.sim ] 


 ****     MOSFET MODEL PARAMETERS


******************************************************************************




               X_U9.X_LTC1151.PM1 
               PMOS            
       LEVEL    1            
           L  100.000000E-06 
           W  100.000000E-06 
         VTO   -1.1          
          KP    2.467400E-03 
       GAMMA    0            
         PHI     .6          
      LAMBDA    0            
          IS   10.000000E-15 
          JS    0            
          PB     .8          
        PBSW     .8          
          CJ    0            
        CJSW    0            
        CGSO    0            
        CGDO    0            
        CGBO    0            
         TOX    0            
          XJ    0            
       UCRIT   10.000000E+03 
      DIOMOD    1            
         VFB    0            
        LETA    0            
        WETA    0            
          U0    0            
        TEMP    0            
         VDD    5            
       XPART    0            


               X_U9.X_LTC1151.PM2 
               PMOS            
       LEVEL    1            
           L  100.000000E-06 
           W  100.000000E-06 
         VTO   -1.100001     
          KP    2.467400E-03 
       GAMMA    0            
         PHI     .6          
      LAMBDA    0            
          IS   10.000000E-15 
          JS    0            
          PB     .8          
        PBSW     .8          
          CJ    0            
        CJSW    0            
        CGSO    0            
        CGDO    0            
        CGBO    0            
         TOX    0            
          XJ    0            
       UCRIT   10.000000E+03 
      DIOMOD    1            
         VFB    0            
        LETA    0            
        WETA    0            
          U0    0            
        TEMP    0            
         VDD    5            
       XPART    0            


               X_U6.X_LTC1151.PM1 
               PMOS            
       LEVEL    1            
           L  100.000000E-06 
           W  100.000000E-06 
         VTO   -1.1          
          KP    2.467400E-03 
       GAMMA    0            
         PHI     .6          
      LAMBDA    0            
          IS   10.000000E-15 
          JS    0            
          PB     .8          
        PBSW     .8          
          CJ    0            
        CJSW    0            
        CGSO    0            
        CGDO    0            
        CGBO    0            
         TOX    0            
          XJ    0            
       UCRIT   10.000000E+03 
      DIOMOD    1            
         VFB    0            
        LETA    0            
        WETA    0            
          U0    0            
        TEMP    0            
         VDD    5            
       XPART    0            


               X_U6.X_LTC1151.PM2 
               PMOS            
       LEVEL    1            
           L  100.000000E-06 
           W  100.000000E-06 
         VTO   -1.100001     
          KP    2.467400E-03 
       GAMMA    0            
         PHI     .6          
      LAMBDA    0            
          IS   10.000000E-15 
          JS    0            
          PB     .8          
        PBSW     .8          
          CJ    0            
        CJSW    0            
        CGSO    0            
        CGDO    0            
        CGBO    0            
         TOX    0            
          XJ    0            
       UCRIT   10.000000E+03 
      DIOMOD    1            
         VFB    0            
        LETA    0            
        WETA    0            
          U0    0            
        TEMP    0            
         VDD    5            
       XPART    0            


**** 06/02/21 18:08:34 ****** PSpice 17.2.0 (March 2016) ****** ID# 0 ********

 ** Profile: "SCHEMATIC1-time_freq_9100"  [ d:\cad\signal_generator-pspicefiles\schematic1\time_freq_9100.sim ] 


 ****     Resistor MODEL PARAMETERS


******************************************************************************




               R_R8            R_R3            R_R2            R_R14           
           R    1               1               1               1            


               R_R18           R_LOAD          R_R7            R_R15           
           R    1               1               1               1            


               R_R16           R_Rp2           R_Rp3           R_Rp            
           R    1               1               1               1            


               R_Rp1           
           R    1            


**** 06/02/21 18:08:34 ****** PSpice 17.2.0 (March 2016) ****** ID# 0 ********

 ** Profile: "SCHEMATIC1-time_freq_9100"  [ d:\cad\signal_generator-pspicefiles\schematic1\time_freq_9100.sim ] 


 ****     Capacitor MODEL PARAMETERS


******************************************************************************




               C_C4            
           C    1            


**** 06/02/21 18:08:34 ****** PSpice 17.2.0 (March 2016) ****** ID# 0 ********

 ** Profile: "SCHEMATIC1-time_freq_9100"  [ d:\cad\signal_generator-pspicefiles\schematic1\time_freq_9100.sim ] 


 ****     Voltage Controlled Switch MODEL PARAMETERS


******************************************************************************




               X_U17.Smod      X_U18.Smod      
         RON     .01             .01         
        ROFF    1.000000E+06    1.000000E+06 
         VON    1               1            
        VOFF    0               0            


**** 06/02/21 18:08:34 ****** PSpice 17.2.0 (March 2016) ****** ID# 0 ********

 ** Profile: "SCHEMATIC1-time_freq_9100"  [ d:\cad\signal_generator-pspicefiles\schematic1\time_freq_9100.sim ] 


 ****     INITIAL TRANSIENT SOLUTION       TEMPERATURE =  -20.000 DEG C


******************************************************************************



 NODE   VOLTAGE     NODE   VOLTAGE     NODE   VOLTAGE     NODE   VOLTAGE


(  OUT)-70.27E-06  ( +VCC)   15.0000  ( -VCC)  -15.0000  (DREPT)  -15.1410      

(N38297)-76.58E-06 (N38457)   -3.8225 (N38467) 205.6E-09 (N38507) 120.5E-09     

(N38771)   -1.8722 (N40270)   -3.1877 (N54218)-90.01E-06 (N54306)     .8721     

(N54330)     .0440 (N54424)     .0180 (N54534)    -.0441 (N54538)    -.8365     

(N55611)   -4.2533 (N55615)-104.2E-06 (N55619)-104.2E-06 (X_U17.3)    1.0000    

(X_U18.3)    1.0000                   (X_U19.6)-3.742E-06                       

(X_U19.7)     .0251                   (X_U19.8)     .0251                       

(X_U19.9)    0.0000                   (TRIUNGHI)-75.83E-06                      

(X_U19.10)    -.6997                  (X_U19.11)   14.9600                      

(X_U19.12)   14.9600                  (X_U19.13)    -.6858                      

(X_U19.14)    -.6858                  (X_U19.53)   14.0000                      

(X_U19.54)  -14.0000                  (X_U19.90)     .1428                      

(X_U19.91)   40.0000                  (X_U19.92)  -40.0000                      

(X_U19.99)    0.0000                  (X_U6.X_LTC1151.1)  -15.1450              

(X_U6.X_LTC1151.8) 745.7E-09          (X_U9.X_LTC1151.1)     .0025              

(X_U9.X_LTC1151.8)-24.40E-09          (X_U6.X_LTC1151.12)   -1.7923             

(X_U6.X_LTC1151.13)  -13.7160         (X_U6.X_LTC1151.14)  -16.5670             

(X_U6.X_LTC1151.18)   -1.0124         (X_U6.X_LTC1151.19) 59.61E-09             

(X_U6.X_LTC1151.20) 6.460E-12         (X_U6.X_LTC1151.21)    1.6584             

(X_U6.X_LTC1151.60)  -15.0000         (X_U6.X_LTC1151.70)   15.0000             

(X_U6.X_LTC1151.80)  -15.0000         (X_U6.X_LTC1151.90)  -14.8090             

(X_U9.X_LTC1151.12)    1.3258         (X_U9.X_LTC1151.13)    1.4278             

(X_U9.X_LTC1151.14)   -1.4254         (X_U9.X_LTC1151.18)     .7684             

(X_U9.X_LTC1151.19) 101.0E-09         (X_U9.X_LTC1151.20) 41.35E-09             

(X_U9.X_LTC1151.21)    3.4392         (X_U9.X_LTC1151.60)  -15.0000             

(X_U9.X_LTC1151.70)   15.0000         (X_U9.X_LTC1151.80)  -14.9040             

(X_U9.X_LTC1151.90)  -14.9050         (X_U6.X_LTC1151.131)   15.0000            

(X_U6.X_LTC1151.141)  -15.7350        (X_U9.X_LTC1151.131)   15.0000            

(X_U9.X_LTC1151.141)  -15.0000        




    VOLTAGE SOURCE CURRENTS
    NAME         CURRENT

    V_V1        -7.523E-02
    V_V2         7.464E-02
    X_U17.V1    -1.000E-12
    X_U18.V1    -1.000E-12
    X_U19.vb    -3.742E-11
    X_U19.vc     1.398E-11
    X_U19.ve     1.593E-11
    X_U19.vlim   1.428E-04
    X_U19.vlp   -3.986E-11
    X_U19.vln   -4.015E-11
    X_U9.X_LTC1151.VOD1   4.131E-09
    X_U9.X_LTC1151.VOD2  -3.439E-12
    X_U9.X_LTC1151.VC   1.357E-11
    X_U9.X_LTC1151.VE   1.357E-11
    X_U6.X_LTC1151.VOD1  -1.012E-12
    X_U6.X_LTC1151.VOD2  -1.658E-12
    X_U6.X_LTC1151.VC   2.872E-11
    X_U6.X_LTC1151.VE  -7.443E-04

    TOTAL POWER DISSIPATION   2.25E+00  WATTS


**** 06/02/21 18:08:34 ****** PSpice 17.2.0 (March 2016) ****** ID# 0 ********

 ** Profile: "SCHEMATIC1-time_freq_9100"  [ d:\cad\signal_generator-pspicefiles\schematic1\time_freq_9100.sim ] 


 ****     INITIAL TRANSIENT SOLUTION       TEMPERATURE =  -10.000 DEG C


******************************************************************************



 NODE   VOLTAGE     NODE   VOLTAGE     NODE   VOLTAGE     NODE   VOLTAGE


(  OUT)-143.8E-06  ( +VCC)   15.0000  ( -VCC)  -15.0000  (DREPT)  -15.1100      

(N38297)-150.1E-06 (N38457)   -3.8146 (N38467) 208.0E-09 (N38507) 121.3E-09     

(N38771)   -1.8684 (N40270)   -3.1811 (N54218)-163.5E-06 (N54306)     .8593     

(N54330)     .0446 (N54424)     .0186 (N54534)    -.0449 (N54538)    -.8224     

(N55611)   -4.2445 (N55615)-177.6E-06 (N55619)-177.6E-06 (X_U17.3)    1.0000    

(X_U18.3)    1.0000                   (X_U19.6)-3.582E-06                       

(X_U19.7)     .0250                   (X_U19.8)     .0250                       

(X_U19.9)    0.0000                   (TRIUNGHI)-149.3E-06                      

(X_U19.10)    -.6804                  (X_U19.11)   14.9600                      

(X_U19.12)   14.9600                  (X_U19.13)    -.6665                      

(X_U19.14)    -.6665                  (X_U19.53)   14.0000                      

(X_U19.54)  -14.0000                  (X_U19.90)     .1276                      

(X_U19.91)   40.0000                  (X_U19.92)  -40.0000                      

(X_U19.99)    0.0000                  (X_U6.X_LTC1151.1)  -15.1130              

(X_U6.X_LTC1151.8) 743.9E-09          (X_U9.X_LTC1151.1)     .0024              

(X_U9.X_LTC1151.8)-24.35E-09          (X_U6.X_LTC1151.12)   -1.7907             

(X_U6.X_LTC1151.13)  -13.6850         (X_U6.X_LTC1151.14)  -16.5350             

(X_U6.X_LTC1151.18)   -1.0056         (X_U6.X_LTC1151.19) 59.61E-09             

(X_U6.X_LTC1151.20) 6.596E-12         (X_U6.X_LTC1151.21)    1.6652             

(X_U6.X_LTC1151.60)  -15.0000         (X_U6.X_LTC1151.70)   15.0000             

(X_U6.X_LTC1151.80)  -15.0000         (X_U6.X_LTC1151.90)  -14.8090             

(X_U9.X_LTC1151.12)    1.3186         (X_U9.X_LTC1151.13)    1.4240             

(X_U9.X_LTC1151.14)   -1.4254         (X_U9.X_LTC1151.18)     .7668             

(X_U9.X_LTC1151.19) 138.0E-09         (X_U9.X_LTC1151.20) 78.39E-09             

(X_U9.X_LTC1151.21)    3.4376         (X_U9.X_LTC1151.60)  -15.0000             

(X_U9.X_LTC1151.70)   15.0000         (X_U9.X_LTC1151.80)  -14.9040             

(X_U9.X_LTC1151.90)  -14.9050         (X_U6.X_LTC1151.131)   15.0000            

(X_U6.X_LTC1151.141)  -15.7180        (X_U9.X_LTC1151.131)   15.0000            

(X_U9.X_LTC1151.141)  -15.0000        




    VOLTAGE SOURCE CURRENTS
    NAME         CURRENT

    V_V1        -7.595E-02
    V_V2         7.537E-02
    X_U17.V1    -1.000E-12
    X_U18.V1    -1.000E-12
    X_U19.vb    -3.582E-11
    X_U19.vc     1.398E-11
    X_U19.ve     1.593E-11
    X_U19.vlim   1.276E-04
    X_U19.vlp   -3.987E-11
    X_U19.vln   -4.013E-11
    X_U9.X_LTC1151.VOD1   7.835E-09
    X_U9.X_LTC1151.VOD2  -3.438E-12
    X_U9.X_LTC1151.VC   1.358E-11
    X_U9.X_LTC1151.VE   1.357E-11
    X_U6.X_LTC1151.VOD1  -1.006E-12
    X_U6.X_LTC1151.VOD2  -1.665E-12
    X_U6.X_LTC1151.VC   2.868E-11
    X_U6.X_LTC1151.VE  -7.268E-04

    TOTAL POWER DISSIPATION   2.27E+00  WATTS


**** 06/02/21 18:08:34 ****** PSpice 17.2.0 (March 2016) ****** ID# 0 ********

 ** Profile: "SCHEMATIC1-time_freq_9100"  [ d:\cad\signal_generator-pspicefiles\schematic1\time_freq_9100.sim ] 


 ****     INITIAL TRANSIENT SOLUTION       TEMPERATURE =    0.000 DEG C


******************************************************************************



 NODE   VOLTAGE     NODE   VOLTAGE     NODE   VOLTAGE     NODE   VOLTAGE


(  OUT)-274.5E-06  ( +VCC)   15.0000  ( -VCC)  -15.0000  (DREPT)  -15.0780      

(N38297)-280.7E-06 (N38457)   -3.8066 (N38467) 213.1E-09 (N38507) 123.0E-09     

(N38771)   -1.8645 (N40270)   -3.1745 (N54218)-294.1E-06 (N54306)     .8463     

(N54330)     .0451 (N54424)     .0192 (N54534)    -.0457 (N54538)    -.8083     

(N55611)   -4.2356 (N55615)-308.2E-06 (N55619)-308.2E-06 (X_U17.3)    1.0000    

(X_U18.3)    1.0000                   (X_U19.6)-3.429E-06                       

(X_U19.7)     .0248                   (X_U19.8)     .0248                       

(X_U19.9)    0.0000                   (TRIUNGHI)-280.0E-06                      

(X_U19.10)    -.6610                  (X_U19.11)   14.9600                      

(X_U19.12)   14.9600                  (X_U19.13)    -.6472                      

(X_U19.14)    -.6472                  (X_U19.53)   14.0000                      

(X_U19.54)  -14.0000                  (X_U19.90)     .1132                      

(X_U19.91)   40.0000                  (X_U19.92)  -40.0000                      

(X_U19.99)    0.0000                  (X_U6.X_LTC1151.1)  -15.0810              

(X_U6.X_LTC1151.8) 742.2E-09          (X_U9.X_LTC1151.1)     .0023              

(X_U9.X_LTC1151.8)-24.29E-09          (X_U6.X_LTC1151.12)   -1.7894             

(X_U6.X_LTC1151.13)  -13.6530         (X_U6.X_LTC1151.14)  -16.5030             

(X_U6.X_LTC1151.18)    -.9987         (X_U6.X_LTC1151.19) 59.61E-09             

(X_U6.X_LTC1151.20) 6.734E-12         (X_U6.X_LTC1151.21)    1.6721             

(X_U6.X_LTC1151.60)  -15.0000         (X_U6.X_LTC1151.70)   15.0000             

(X_U6.X_LTC1151.80)  -15.0000         (X_U6.X_LTC1151.90)  -14.8090             

(X_U9.X_LTC1151.12)    1.3113         (X_U9.X_LTC1151.13)    1.4247             

(X_U9.X_LTC1151.14)   -1.4256         (X_U9.X_LTC1151.18)     .7652             

(X_U9.X_LTC1151.19) 201.9E-09         (X_U9.X_LTC1151.20) 142.3E-09             

(X_U9.X_LTC1151.21)    3.4360         (X_U9.X_LTC1151.60)  -15.0000             

(X_U9.X_LTC1151.70)   15.0000         (X_U9.X_LTC1151.80)  -14.9040             

(X_U9.X_LTC1151.90)  -14.9050         (X_U6.X_LTC1151.131)   15.0000            

(X_U6.X_LTC1151.141)  -15.7000        (X_U9.X_LTC1151.131)   15.0000            

(X_U9.X_LTC1151.141)  -15.0000        




    VOLTAGE SOURCE CURRENTS
    NAME         CURRENT

    V_V1        -7.664E-02
    V_V2         7.608E-02
    X_U17.V1    -1.000E-12
    X_U18.V1    -1.000E-12
    X_U19.vb    -3.429E-11
    X_U19.vc     1.398E-11
    X_U19.ve     1.594E-11
    X_U19.vlim   1.132E-04
    X_U19.vlp   -3.989E-11
    X_U19.vln   -4.012E-11
    X_U9.X_LTC1151.VOD1   1.423E-08
    X_U9.X_LTC1151.VOD2  -3.436E-12
    X_U9.X_LTC1151.VC   1.358E-11
    X_U9.X_LTC1151.VE   1.357E-11
    X_U6.X_LTC1151.VOD1  -9.987E-13
    X_U6.X_LTC1151.VOD2  -1.672E-12
    X_U6.X_LTC1151.VC   2.865E-11
    X_U6.X_LTC1151.VE  -7.093E-04

    TOTAL POWER DISSIPATION   2.29E+00  WATTS


**** 06/02/21 18:08:34 ****** PSpice 17.2.0 (March 2016) ****** ID# 0 ********

 ** Profile: "SCHEMATIC1-time_freq_9100"  [ d:\cad\signal_generator-pspicefiles\schematic1\time_freq_9100.sim ] 


 ****     INITIAL TRANSIENT SOLUTION       TEMPERATURE =   10.000 DEG C


******************************************************************************



 NODE   VOLTAGE     NODE   VOLTAGE     NODE   VOLTAGE     NODE   VOLTAGE


(  OUT) 19.99E-06  ( +VCC)   15.0000  ( -VCC)  -15.0000  (DREPT)-4.204E-06      

(N38297) 599.1E-09 (N38457)-690.6E-09 (N38467) 223.5E-09 (N38507) 126.4E-09     

(N38771)-338.3E-09 (N40270)-249.2E-09 (N54218) 598.3E-09 (N54306)     .8337     

(N54330)     .0460 (N54424)     .0202 (N54534)    -.0460 (N54538)    -.7936     

(N55611)-750.7E-09 (N55615) 598.3E-09 (N55619) 598.3E-09 (X_U17.3)    1.0000    

(X_U18.3)    1.0000                   (X_U19.6)-3.363E-06                       

(X_U19.7)     .0253                   (X_U19.8)     .0253                       

(X_U19.9)    0.0000                   (TRIUNGHI) 599.1E-09                      

(X_U19.10)    -.6412                  (X_U19.11)   14.9600                      

(X_U19.12)   14.9600                  (X_U19.13)    -.6273                      

(X_U19.14)    -.6273                  (X_U19.53)   14.0000                      

(X_U19.54)  -14.0000                  (X_U19.90)     .1019                      

(X_U19.91)   40.0000                  (X_U19.92)  -40.0000                      

(X_U19.99)    0.0000                  (X_U6.X_LTC1151.1)-4.205E-06              

(X_U6.X_LTC1151.8) 206.2E-15          (X_U9.X_LTC1151.1) 679.7E-09              

(X_U9.X_LTC1151.8)-787.9E-15          (X_U6.X_LTC1151.12)    1.3040             

(X_U6.X_LTC1151.13)    1.4253         (X_U6.X_LTC1151.14)   -1.4253             

(X_U6.X_LTC1151.18)-254.0E-09         (X_U6.X_LTC1151.19) 59.63E-09             

(X_U6.X_LTC1151.20) 26.71E-12         (X_U6.X_LTC1151.21)    2.6708             

(X_U6.X_LTC1151.60)  -15.0000         (X_U6.X_LTC1151.70)   15.0000             

(X_U6.X_LTC1151.80)  -14.9050         (X_U6.X_LTC1151.90)  -14.9050             

(X_U9.X_LTC1151.12)    1.3040         (X_U9.X_LTC1151.13)   -3.5071             

(X_U9.X_LTC1151.14)   -1.4253         (X_U9.X_LTC1151.18) 23.92E-06             

(X_U9.X_LTC1151.19) 59.63E-09         (X_U9.X_LTC1151.20) 26.71E-12             

(X_U9.X_LTC1151.21)    2.6708         (X_U9.X_LTC1151.60)  -15.0000             

(X_U9.X_LTC1151.70)   15.0000         (X_U9.X_LTC1151.80)  -14.9050             

(X_U9.X_LTC1151.90)  -14.9050         (X_U6.X_LTC1151.131)   15.0000            

(X_U6.X_LTC1151.141)  -15.0000        (X_U9.X_LTC1151.131)   15.0000            

(X_U9.X_LTC1151.141)  -15.0000        




    VOLTAGE SOURCE CURRENTS
    NAME         CURRENT

    V_V1        -7.733E-02
    V_V2         7.743E-02
    X_U17.V1    -1.000E-12
    X_U18.V1    -1.000E-12
    X_U19.vb    -3.363E-11
    X_U19.vc     1.398E-11
    X_U19.ve     1.594E-11
    X_U19.vlim   1.019E-04
    X_U19.vlp   -3.990E-11
    X_U19.vln   -4.011E-11
    X_U9.X_LTC1151.VOD1   2.386E-17
    X_U9.X_LTC1151.VOD2  -2.671E-12
    X_U9.X_LTC1151.VC   1.851E-11
    X_U9.X_LTC1151.VE   1.357E-11
    X_U6.X_LTC1151.VOD1  -3.136E-19
    X_U6.X_LTC1151.VOD2  -2.671E-12
    X_U6.X_LTC1151.VC   1.357E-11
    X_U6.X_LTC1151.VE   1.357E-11

    TOTAL POWER DISSIPATION   2.32E+00  WATTS


**** 06/02/21 18:08:34 ****** PSpice 17.2.0 (March 2016) ****** ID# 0 ********

 ** Profile: "SCHEMATIC1-time_freq_9100"  [ d:\cad\signal_generator-pspicefiles\schematic1\time_freq_9100.sim ] 


 ****     INITIAL TRANSIENT SOLUTION       TEMPERATURE =   20.000 DEG C


******************************************************************************



 NODE   VOLTAGE     NODE   VOLTAGE     NODE   VOLTAGE     NODE   VOLTAGE


(  OUT) 32.95E-06  ( +VCC)   15.0000  ( -VCC)  -15.0000  (DREPT)   14.7610      

(N38297) 648.4E-09 (N38457)    3.7265 (N38467) 244.0E-09 (N38507) 133.1E-09     

(N38771)    1.8252 (N40270)    3.1076 (N54218) 13.74E-06 (N54306)     .8206     

(N54330)     .0467 (N54424)     .0209 (N54534)    -.0466 (N54538)    -.7791     

(N55611)    4.1464 (N55615) 27.56E-06 (N55619) 27.56E-06 (X_U17.3)    1.0000    

(X_U18.3)    1.0000                   (X_U19.6)-3.263E-06                       

(X_U19.7)     .0254                   (X_U19.8)     .0254                       

(X_U19.9)    0.0000                   (TRIUNGHI)-82.27E-09                      

(X_U19.10)    -.6215                  (X_U19.11)   14.9600                      

(X_U19.12)   14.9600                  (X_U19.13)    -.6076                      

(X_U19.14)    -.6076                  (X_U19.53)   14.0000                      

(X_U19.54)  -14.0000                  (X_U19.90)     .0902                      

(X_U19.91)   40.0000                  (X_U19.92)  -40.0000                      

(X_U19.99)    0.0000                  (X_U6.X_LTC1151.1)   14.7640              

(X_U6.X_LTC1151.8)-724.1E-09          (X_U9.X_LTC1151.1)    -.0025              

(X_U9.X_LTC1151.8) 23.79E-09          (X_U6.X_LTC1151.12)    1.3741             

(X_U6.X_LTC1151.13)   16.1860         (X_U6.X_LTC1151.14)   13.3360             

(X_U6.X_LTC1151.18)     .8976         (X_U6.X_LTC1151.19) 90.05E-06             

(X_U6.X_LTC1151.20) 90.00E-06         (X_U6.X_LTC1151.21)    3.5684             

(X_U6.X_LTC1151.60)  -15.0000         (X_U6.X_LTC1151.70)   15.0000             

(X_U6.X_LTC1151.80)  -14.8090         (X_U6.X_LTC1151.90)  -15.0000             

(X_U9.X_LTC1151.12)    1.2964         (X_U9.X_LTC1151.13)  -68.9490             

(X_U9.X_LTC1151.14)   -1.4253         (X_U9.X_LTC1151.18)    -.7491             

(X_U9.X_LTC1151.19) 59.62E-09         (X_U9.X_LTC1151.20) 11.73E-12             

(X_U9.X_LTC1151.21)    1.9217         (X_U9.X_LTC1151.60)  -15.0000             

(X_U9.X_LTC1151.70)   15.0000         (X_U9.X_LTC1151.80)  -14.9050             

(X_U9.X_LTC1151.90)  -14.9050         (X_U6.X_LTC1151.131)   15.4240            

(X_U6.X_LTC1151.141)  -15.0000        (X_U9.X_LTC1151.131)   15.0000            

(X_U9.X_LTC1151.141)  -15.0000        




    VOLTAGE SOURCE CURRENTS
    NAME         CURRENT

    V_V1        -7.755E-02
    V_V2         7.806E-02
    X_U17.V1    -1.000E-12
    X_U18.V1    -1.000E-12
    X_U19.vb    -3.263E-11
    X_U19.vc     1.398E-11
    X_U19.ve     1.594E-11
    X_U19.vlim   9.022E-05
    X_U19.vlp   -3.991E-11
    X_U19.vln   -4.009E-11
    X_U9.X_LTC1151.VOD1  -7.491E-13
    X_U9.X_LTC1151.VOD2  -1.922E-12
    X_U9.X_LTC1151.VC   8.395E-11
    X_U9.X_LTC1151.VE   1.357E-11
    X_U6.X_LTC1151.VOD1   9.000E-06
    X_U6.X_LTC1151.VOD2  -3.568E-12
    X_U6.X_LTC1151.VC  -4.243E-04
    X_U6.X_LTC1151.VE   2.834E-11

    TOTAL POWER DISSIPATION   2.33E+00  WATTS


**** 06/02/21 18:08:34 ****** PSpice 17.2.0 (March 2016) ****** ID# 0 ********

 ** Profile: "SCHEMATIC1-time_freq_9100"  [ d:\cad\signal_generator-pspicefiles\schematic1\time_freq_9100.sim ] 


 ****     INITIAL TRANSIENT SOLUTION       TEMPERATURE =   30.000 DEG C


******************************************************************************



 NODE   VOLTAGE     NODE   VOLTAGE     NODE   VOLTAGE     NODE   VOLTAGE


(  OUT) 19.67E-06  ( +VCC)   15.0000  ( -VCC)  -15.0000  (DREPT)-4.058E-06      

(N38297) 652.3E-09 (N38457)-620.8E-09 (N38467) 282.2E-09 (N38507) 145.6E-09     

(N38771)-304.1E-09 (N40270)-224.3E-09 (N54218) 651.5E-09 (N54306)     .8074     

(N54330)     .0472 (N54424)     .0216 (N54534)    -.0472 (N54538)    -.7645     

(N55611)-671.4E-09 (N55615) 651.4E-09 (N55619) 651.4E-09 (X_U17.3)    1.0000    

(X_U18.3)    1.0000                   (X_U19.6)-3.170E-06                       

(X_U19.7)     .0256                   (X_U19.8)     .0256                       

(X_U19.9)    0.0000                   (TRIUNGHI) 652.3E-09                      

(X_U19.10)    -.6017                  (X_U19.11)   14.9600                      

(X_U19.12)   14.9600                  (X_U19.13)    -.5878                      

(X_U19.14)    -.5879                  (X_U19.53)   14.0000                      

(X_U19.54)  -14.0000                  (X_U19.90)     .0792                      

(X_U19.91)   40.0000                  (X_U19.92)  -40.0000                      

(X_U19.99)    0.0000                  (X_U6.X_LTC1151.1)-4.059E-06              

(X_U6.X_LTC1151.8) 199.2E-15          (X_U9.X_LTC1151.1) 732.9E-09              

(X_U9.X_LTC1151.8)-790.6E-15          (X_U6.X_LTC1151.12)    1.2886             

(X_U6.X_LTC1151.13)    1.4253         (X_U6.X_LTC1151.14)   -1.4253             

(X_U6.X_LTC1151.18)-250.9E-09         (X_U6.X_LTC1151.19) 59.63E-09             

(X_U6.X_LTC1151.20) 26.71E-12         (X_U6.X_LTC1151.21)    2.6708             

(X_U6.X_LTC1151.60)  -15.0000         (X_U6.X_LTC1151.70)   15.0000             

(X_U6.X_LTC1151.80)  -14.9050         (X_U6.X_LTC1151.90)  -14.9050             

(X_U9.X_LTC1151.12)    1.2886         (X_U9.X_LTC1151.13)  -14.3160             

(X_U9.X_LTC1151.14)   -1.4253         (X_U9.X_LTC1151.18) 23.93E-06             

(X_U9.X_LTC1151.19) 59.63E-09         (X_U9.X_LTC1151.20) 26.71E-12             

(X_U9.X_LTC1151.21)    2.6708         (X_U9.X_LTC1151.60)  -15.0000             

(X_U9.X_LTC1151.70)   15.0000         (X_U9.X_LTC1151.80)  -14.9050             

(X_U9.X_LTC1151.90)  -14.9050         (X_U6.X_LTC1151.131)   15.0000            

(X_U6.X_LTC1151.141)  -15.0000        (X_U9.X_LTC1151.131)   15.0000            

(X_U9.X_LTC1151.141)  -15.0000        




    VOLTAGE SOURCE CURRENTS
    NAME         CURRENT

    V_V1        -7.859E-02
    V_V2         7.867E-02
    X_U17.V1    -1.000E-12
    X_U18.V1    -1.000E-12
    X_U19.vb    -3.170E-11
    X_U19.vc     1.398E-11
    X_U19.ve     1.594E-11
    X_U19.vlim   7.921E-05
    X_U19.vlp   -3.992E-11
    X_U19.vln   -4.008E-11
    X_U9.X_LTC1151.VOD1   2.387E-17
    X_U9.X_LTC1151.VOD2  -2.671E-12
    X_U9.X_LTC1151.VC   2.932E-11
    X_U9.X_LTC1151.VE   1.357E-11
    X_U6.X_LTC1151.VOD1  -3.105E-19
    X_U6.X_LTC1151.VOD2  -2.671E-12
    X_U6.X_LTC1151.VC   1.357E-11
    X_U6.X_LTC1151.VE   1.357E-11

    TOTAL POWER DISSIPATION   2.36E+00  WATTS


**** 06/02/21 18:08:34 ****** PSpice 17.2.0 (March 2016) ****** ID# 0 ********

 ** Profile: "SCHEMATIC1-time_freq_9100"  [ d:\cad\signal_generator-pspicefiles\schematic1\time_freq_9100.sim ] 


 ****     INITIAL TRANSIENT SOLUTION       TEMPERATURE =   40.000 DEG C


******************************************************************************



 NODE   VOLTAGE     NODE   VOLTAGE     NODE   VOLTAGE     NODE   VOLTAGE


(  OUT) 19.53E-06  ( +VCC)   15.0000  ( -VCC)  -15.0000  (DREPT)-5.173E-06      

(N38297) 738.1E-09 (N38457)-849.2E-09 (N38467) 350.8E-09 (N38507) 168.0E-09     

(N38771)-416.0E-09 (N40270)-199.2E-09 (N54218) 737.3E-09 (N54306)     .7941     

(N54330)     .0478 (N54424)     .0223 (N54534)    -.0477 (N54538)    -.7497     

(N55611)-922.9E-09 (N55615) 737.3E-09 (N55619) 737.3E-09 (X_U17.3)    1.0000    

(X_U18.3)    1.0000                   (X_U19.6)-3.091E-06                       

(X_U19.7)     .0257                   (X_U19.8)     .0257                       

(X_U19.9)    0.0000                   (TRIUNGHI) 738.1E-09                      

(X_U19.10)    -.5819                  (X_U19.11)   14.9600                      

(X_U19.12)   14.9600                  (X_U19.13)    -.5680                      

(X_U19.14)    -.5680                  (X_U19.53)   14.0000                      

(X_U19.54)  -14.0000                  (X_U19.90)     .0691                      

(X_U19.91)   40.0000                  (X_U19.92)  -40.0000                      

(X_U19.99)    0.0000                  (X_U6.X_LTC1151.1)-5.174E-06              

(X_U6.X_LTC1151.8) 252.4E-15          (X_U9.X_LTC1151.1) 819.1E-09              

(X_U9.X_LTC1151.8)-797.5E-15          (X_U6.X_LTC1151.12)    1.2808             

(X_U6.X_LTC1151.13)    1.4253         (X_U6.X_LTC1151.14)   -1.4253             

(X_U6.X_LTC1151.18)-271.6E-09         (X_U6.X_LTC1151.19) 59.63E-09             

(X_U6.X_LTC1151.20) 26.71E-12         (X_U6.X_LTC1151.21)    2.6708             

(X_U6.X_LTC1151.60)  -15.0000         (X_U6.X_LTC1151.70)   15.0000             

(X_U6.X_LTC1151.80)  -14.9050         (X_U6.X_LTC1151.90)  -14.9050             

(X_U9.X_LTC1151.12)    1.2808         (X_U9.X_LTC1151.13)  -47.3630             

(X_U9.X_LTC1151.14)   -1.4253         (X_U9.X_LTC1151.18) 24.01E-06             

(X_U9.X_LTC1151.19) 59.63E-09         (X_U9.X_LTC1151.20) 26.71E-12             

(X_U9.X_LTC1151.21)    2.6708         (X_U9.X_LTC1151.60)  -15.0000             

(X_U9.X_LTC1151.70)   15.0000         (X_U9.X_LTC1151.80)  -14.9050             

(X_U9.X_LTC1151.90)  -14.9050         (X_U6.X_LTC1151.131)   15.0000            

(X_U6.X_LTC1151.141)  -15.0000        (X_U9.X_LTC1151.131)   15.0000            

(X_U9.X_LTC1151.141)  -15.0000        




    VOLTAGE SOURCE CURRENTS
    NAME         CURRENT

    V_V1        -7.918E-02
    V_V2         7.925E-02
    X_U17.V1    -1.000E-12
    X_U18.V1    -1.000E-12
    X_U19.vb    -3.091E-11
    X_U19.vc     1.398E-11
    X_U19.ve     1.594E-11
    X_U19.vlim   6.906E-05
    X_U19.vlp   -3.994E-11
    X_U19.vln   -4.008E-11
    X_U9.X_LTC1151.VOD1   2.395E-17
    X_U9.X_LTC1151.VOD2  -2.671E-12
    X_U9.X_LTC1151.VC   6.236E-11
    X_U9.X_LTC1151.VE   1.358E-11
    X_U6.X_LTC1151.VOD1  -3.312E-19
    X_U6.X_LTC1151.VOD2  -2.671E-12
    X_U6.X_LTC1151.VC   1.358E-11
    X_U6.X_LTC1151.VE   1.358E-11

    TOTAL POWER DISSIPATION   2.38E+00  WATTS



          JOB CONCLUDED

**** 06/02/21 18:08:34 ****** PSpice 17.2.0 (March 2016) ****** ID# 0 ********

 ** Profile: "SCHEMATIC1-time_freq_9100"  [ d:\cad\signal_generator-pspicefiles\schematic1\time_freq_9100.sim ] 


 ****     JOB STATISTICS SUMMARY


******************************************************************************



  Total job time (using Solver 1)   =        6.19
